
---------- Begin Simulation Statistics ----------
host_inst_rate                                 877425                       # Simulator instruction rate (inst/s)
host_mem_usage                                 594976                       # Number of bytes of host memory used
host_seconds                                     0.06                       # Real time elapsed on the host
host_tick_rate                              435935327                       # Simulator tick rate (ticks/s)
sim_freq                                 1000000000000                       # Frequency of simulated ticks
sim_insts                                       55140                       # Number of instructions simulated
sim_seconds                                  0.000028                       # Number of seconds simulated
sim_ticks                                    27582500                       # Number of ticks simulated
system.cpu.idle_fraction                            0                       # Percentage of idle cycles
system.cpu.not_idle_fraction                        1                       # Percentage of non-idle cycles
system.cpu.numCycles                            55166                       # number of cpu cycles simulated
system.cpu.num_insts                            55140                       # Number of instructions executed
system.cpu.num_refs                             13436                       # Number of memory references
system.cpu.workload.PROG:num_syscalls              23                       # Number of system calls

---------- End Simulation Statistics   ----------
