
---------- Begin Simulation Statistics ----------
host_inst_rate                                 923701                       # Simulator instruction rate (inst/s)
host_mem_usage                                 592788                       # Number of bytes of host memory used
host_seconds                                     0.14                       # Real time elapsed on the host
host_tick_rate                              530702790                       # Simulator tick rate (ticks/s)
sim_freq                                 1000000000000                       # Frequency of simulated ticks
sim_insts                                      124865                       # Number of instructions simulated
sim_seconds                                  0.000072                       # Number of seconds simulated
sim_ticks                                    71889000                       # Number of ticks simulated
sim_uops                                       124865                       # Number of uops simulated
system.cpu.idle_fraction                            0                       # Percentage of idle cycles
system.cpu.not_idle_fraction                        1                       # Percentage of non-idle cycles
system.cpu.numCycles                           143779                       # number of cpu cycles simulated
system.cpu.num_insts                            57556                       # Number of instructions executed
system.cpu.num_refs                             16871                       # Number of memory references
system.cpu.workload.PROG:num_syscalls              14                       # Number of system calls

---------- End Simulation Statistics   ----------
